30813625


 40 45  0  0  0  0  0  0  0  0999 V2000
   33.7660   29.3460   86.9270 C   0  0  0  0  0  0  0  0  0  0  0  0
   34.6090   28.9130   87.9520 C   0  0  0  0  0  0  0  0  0  0  0  0
   35.8470   29.5260   88.1610 C   0  0  0  0  0  0  0  0  0  0  0  0
   36.2380   30.5740   87.3370 C   0  0  0  0  0  0  0  0  0  0  0  0
   35.3380   30.9710   86.3580 C   0  0  0  0  0  0  0  0  0  0  0  0
   34.1290   30.3960   86.1550 N   0  0  0  0  0  0  0  0  0  0  0  0
   27.6360   25.0220   85.3820 C   0  0  0  0  0  0  0  0  0  0  0  0
   27.8030   23.8000   85.3990 O   0  0  0  0  0  0  0  0  0  0  0  0
   28.5690   25.8640   85.9050 N   0  0  0  0  0  0  0  0  0  0  0  0
   29.8150   25.5270   86.5680 C   0  0  0  0  0  0  0  0  0  0  0  0
   30.1860   27.0270   86.4470 C   0  0  0  0  0  0  0  0  0  0  0  0
   28.6880   27.2850   86.1290 C   0  0  0  0  0  0  0  0  0  0  0  0
   30.6750   27.6170   87.7760 C   0  0  0  0  0  0  0  0  0  0  0  0
   31.3930   28.9440   87.5440 C   0  0  0  0  0  0  0  0  0  0  0  0
   32.5490   28.7360   86.6750 N   0  0  0  0  0  0  0  0  0  0  0  0
   32.5370   27.6100   85.7380 C   0  0  0  0  0  0  0  0  0  0  0  0
   31.1080   27.3630   85.2600 C   0  0  0  0  0  0  0  0  0  0  0  0
   26.3790   25.6100   84.7360 C   0  0  0  0  0  0  0  0  0  0  0  0
   23.9490   26.1790   85.2540 C   0  0  0  0  0  0  0  0  0  0  0  0
   25.3760   26.1180   85.7850 C   0  0  0  0  0  0  0  0  0  0  0  0
   26.7200   26.6750   83.6800 C   0  0  0  0  0  0  0  0  0  0  0  0
   26.1190   26.3650   82.3140 C   0  0  0  0  0  0  0  0  0  0  0  0
   37.5490   31.2250   87.4910 C   0  0  0  0  0  0  0  0  0  0  0  0
   37.7650   31.9070   88.6400 C   0  0  0  0  0  0  0  0  0  0  0  0
   39.0140   32.6220   88.9360 C   0  0  0  0  0  0  0  0  0  0  0  0
   39.9670   32.5840   87.9830 C   0  0  0  0  0  0  0  0  0  0  0  0
   39.7750   31.8860   86.7950 N   0  0  0  0  0  0  0  0  0  0  0  0
   40.6690   31.7760   85.7770 N   0  0  0  0  0  0  0  0  0  0  0  0
   40.0660   31.0050   84.8740 C   0  0  0  0  0  0  0  0  0  0  0  0
   38.7840   30.6060   85.2750 C   0  0  0  0  0  0  0  0  0  0  0  0
   38.5990   31.1860   86.5130 C   0  0  0  0  0  0  0  0  0  0  0  0
   41.5658   32.1782   85.7198 H   0  0  0  0  0  0  0  0  0  0  0  0
   39.1960   33.3220   90.1730 C   0  0  0  0  0  0  0  0  0  0  0  0
   38.5290   33.0980   91.3590 C   0  0  0  0  0  0  0  0  0  0  0  0
   39.0350   33.9930   92.2580 N   0  0  0  0  0  0  0  0  0  0  0  0
   38.6450   34.1590   93.6370 C   0  0  0  0  0  0  0  0  0  0  0  0
   39.9900   34.7880   91.7420 N   0  0  0  0  0  0  0  0  0  0  0  0
   40.0880   34.3780   90.4740 C   0  0  0  0  0  0  0  0  0  0  0  0
   37.8910   29.7710   84.5450 C   0  0  0  0  0  0  0  0  0  0  0  0
   37.1920   29.0710   83.9400 N   0  0  0  0  0  0  0  0  0  0  0  0
 19 20  1  0  0  0
 20 18  1  0  0  0
 18 21  1  0  0  0
 21 22  1  0  0  0
 18  7  1  0  0  0
  7  8  2  0  0  0
  7  9  1  0  0  0
  9 10  1  0  0  0
 10 11  1  0  0  0
 11 12  1  0  0  0
 11 13  1  0  0  0
 13 14  1  0  0  0
 14 15  1  0  0  0
 15 16  1  0  0  0
 16 17  1  0  0  0
 15  1  1  0  0  0
  1  2  2  0  0  0
  2  3  1  0  0  0
  3  4  2  0  0  0
  4  5  1  0  0  0
  5  6  2  0  0  0
  4 23  1  0  0  0
 23 24  2  0  0  0
 24 25  1  0  0  0
 25 26  2  0  0  0
 26 27  1  0  0  0
 27 28  1  0  0  0
 28 29  1  0  0  0
 29 30  2  0  0  0
 30 39  1  0  0  0
 39 40  3  0  0  0
 30 31  1  0  0  0
 25 33  1  0  0  0
 33 34  2  0  0  0
 34 35  1  0  0  0
 35 36  1  0  0  0
 35 37  1  0  0  0
 37 38  2  0  0  0
 12  9  1  0  0  0
  6  1  1  0  0  0
 31 23  1  0  0  0
 38 33  1  0  0  0
 17 11  1  0  0  0
 31 27  2  0  0  0
 28 32  1  0  0  0
M  CHG 1  27   1
M  END
> <minimizedAffinity>
1240.52670

$$$$
